// * * * * * * * * * * * * * * * * * * * * * * * * * * * * * * * * * * * * * //

/*--------------------------------*- C++ -*----------------------------------*\
| =========                 |                                                 |
| \\      /  F ield         | OpenFOAM: The Open Source CFD Toolbox           |
|  \\    /   O peration     | Version:  3.0.1                                 |
|   \\  /    A nd           | Web:      www.OpenFOAM.org                      |
|    \\/     M anipulation  |                                                 |
\*---------------------------------------------------------------------------*/
FoamFile
{
    version     2.0;
    format      ascii;
    class       dictionary;
    location    "system";
    object      controlDict;
}
// * * * * * * * * * * * * * * * * * * * * * * * * * * * * * * * * * * * * * //

application     interFoam;

startFrom       startTime;

startTime      0;

stopAt          endTime;//stopAt noWriteNow;

endTime         45;

deltaT          0.0001;

writeControl    runTime;

writeInterval   1;

purgeWrite      0;

writeFormat     ascii;

writePrecision  6;

writeCompression off;

timeFormat      general;

timePrecision   6;

runTimeModifiable true;

adjustTimeStep    yes;

maxCo           0.8;
maxAlphaCo      0.8;

maxDeltaT       1;

functions
{
    
    forceCoeffs
    {
        type        forceCoeffs;
        functionObjectLibs ( "libforces.so" );
        outputControl timeStep;
        outputInterval 1;
        patches
        (
            plate_wall
        );
		directForceDensity no;

        pName       p;
        UName       U;
        rhoName     rhoInf;
        log         true;
        rhoInf      998.8;
        CofR        ( 0 0 0 );
        liftDir     ( 0 1 0 );
        dragDir     ( 1 0 0 );
        pitchAxis   ( 0 0 1 );
        magUInf     0.50;
        lRef        0.1;
        Aref        0.00496588;
        rhoRef      998.8;
    }


      forces
      {
        type forces;
        functionObjectLibs ( "libforces.so" );
        patches (plate_wall);
        rhoInf  998.8;
        rhoName rhoInf;
        UName   U;
        //log     on;
        outputControl   timeStep;
        outputInterval  1;
        CofR  ( 0 0 0 );
    }  
}



// ************************************************************************* //
