/*--------------------------------*- C++ -*----------------------------------*\
| =========                 |                                                 |
| \\      /  F ield         | OpenFOAM: The Open Source CFD Toolbox           |
|  \\    /   O peration     | Version:  3.0.1                                 |
|   \\  /    A nd           | Web:      www.OpenFOAM.org                      |
|    \\/     M anipulation  |                                                 |
\*---------------------------------------------------------------------------*/
FoamFile
{
    version     2.0;
    format      ascii;
    class       dictionary;
    location    "system";
    object      fvSchemes;
}
// * * * * * * * * * * * * * * * * * * * * * * * * * * * * * * * * * * * * * //


ddtSchemes
{
    default       Euler; //CrankNicolson 0.1; // Euler; //backward;
}

gradSchemes
{
    default cellMDLimited Gauss linear 0.5; //was Gauss linear;
}


divSchemes
{
    default             none;

    div(rhoPhi,U)      Gauss linearUpwind grad(U);
    div(phi,alpha)      Gauss vanLeer;
    div(phirb,alpha)    Gauss linear;

    "div\(phi,(k|omega)\)"   Gauss linearUpwind default;
    div(((rho*nuEff)*dev2(T(grad(U))))) Gauss linear;
}
laplacianSchemes
{
    default         Gauss linear limited 1.0;
}


interpolationSchemes
{
    default         linear;
}

snGradSchemes
{
    default         limited 1.0; //was corrected;
}

wallDist
{
    method meshWave;
}


// ************************************************************************* //
