/*--------------------------------*- C++ -*----------------------------------*\
| =========                 |                                                 |
| \\      /  F ield         | OpenFOAM: The Open Source CFD Toolbox           |
|  \\    /   O peration     | Version:  3.0.1                                 |
|   \\  /    A nd           | Web:      www.OpenFOAM.org                      |
|    \\/     M anipulation  |                                                 |
\*---------------------------------------------------------------------------*/
FoamFile
{
    version     2.0;
    format      ascii;
    class       dictionary;
    location    "system";
    object      fvSolution;
}
// * * * * * * * * * * * * * * * * * * * * * * * * * * * * * * * * * * * * * //

solvers
{
      "alpha.water.*"
    {
        nAlphaCorr      3;//was2 , higher stable but slower
        nAlphaSubCycles 1;//was1 , higher stable but slower
        cAlpha          1;

        MULESCorr       yes;
        nLimiterIter    5;//was3

        solver          smoothSolver;
        smoother        symGaussSeidel;
        tolerance       1e-8;
        relTol          0;
        minIter         1;
    }

    Phi 
    { 
        solver          GAMG; 
        smoother        DIC; 
        cacheAgglomeration on; 
        agglomerator    faceAreaPair; 
        nCellsInCoarsestLevel 100; 
        mergeLevels     1; 
        tolerance       1e-06; 
        relTol          0.01; 
    } 


   pcorr
    {
        solver          PCG;
        preconditioner
        {
            preconditioner  GAMG;
            tolerance       1e-5;
            relTol          0;
            smoother        GaussSeidel;
            nPreSweeps      0;
            nPostSweeps     2;
            nFinestSweeps   2;
            cacheAgglomeration true;
            nCellsInCoarsestLevel 10;
            agglomerator    faceAreaPair;
            mergeLevels     1;
        }
        tolerance       1e-5;
        relTol          0;
        //maxIter         50;
    }


   p_rgh
    {
        solver           GAMG;
        tolerance        1e-6;
        relTol           0.01;

        smoother         GaussSeidel;
        nPreSweeps       0;
        nPostSweeps      2;

        cacheAgglomeration true;

        nCellsInCoarsestLevel 10;
        agglomerator     faceAreaPair;
        mergeLevels      1;

        //maxIter          50;
    };

    p_rghFinal
    {
        $p_rgh;
        tolerance       1e-6;
        relTol          0;
    }

    "(U|k|omega).*"
    {
        solver          smoothSolver;
        smoother        symGaussSeidel;
        nSweeps         1;
        tolerance       1e-7;
        relTol          0.1;
    };
}


PIMPLE
{
    momentumPredictor   no;
    nOuterCorrectors    2;
    nCorrectors         2;
    nNonOrthogonalCorrectors 1;
    pRefCell            0;
    pRefValue           0;


}

potentialFlow 
{ 
    nNonOrthogonalCorrectors 10; 
    PhiRefCell 0; 
    PhiRefValue 0; 
}

// ************************************************************************* //
