/*--------------------------------*- C++ -*----------------------------------*\
| =========                 |                                                 |
| \\      /  F ield         | OpenFOAM: The Open Source CFD Toolbox           |
|  \\    /   O peration     | Version:  3.0.1                                 |
|   \\  /    A nd           | Web:      www.OpenFOAM.org                      |
|    \\/     M anipulation  |                                                 |
\*---------------------------------------------------------------------------*/
FoamFile
{
    version     2.0;
    format      ascii;
    class       volScalarField;
    location    "0";
    object      alpha;
}
// * * * * * * * * * * * * * * * * * * * * * * * * * * * * * * * * * * * * * //

dimensions      [0 0 0 0 0 0 0];

internalField   uniform 0;

boundaryField
{
    bottom
    {
        type            zeroGradient;
    }
    plate_wall
    {
        type            zeroGradient;
    }
    outlet
    {
        type            variableHeightFlowRate;
        lowerBound      0;
        upperBound      1;
        value           $internalField;//uniform 0;
    }
    top
    {
        type            symmetry;
    }
    inlet
    {
        type            fixedValue;
        value           $internalField;
    }
    frontAndBackPlanes
    {
        type            empty;
    }
}


// ************************************************************************* //
