/*--------------------------------*- C++ -*----------------------------------*\
| =========                 |                                                 |
| \\      /  F ield         | OpenFOAM: The Open Source CFD Toolbox           |
|  \\    /   O peration     | Version:  3.0.1                                 |
|   \\  /    A nd           | Web:      www.OpenFOAM.org                      |
|    \\/     M anipulation  |                                                 |
\*---------------------------------------------------------------------------*/
FoamFile
{
    version     2.0;
    format      ascii;
    class       volScalarField;
    location    "0";
    object      omega;
}
// * * * * * * * * * * * * * * * * * * * * * * * * * * * * * * * * * * * * * //

dimensions      [0 0 -1 0 0 0 0];

internalField   uniform 6.62;

boundaryField
{
    bottom
    {
        type            omegaWallFunction;
        value           $internalField;                  //was uniform 1e-20;
    }
    
    inlet
    {
        type            fixedValue;
        value           $internalField;
    }

/*
    inlet
    {
        type            turbulentMixingLengthFrequencyInlet;
	mixingLength	0.007;
        value           uniform 0.1;
    }

*/
    
    outlet                                 //was zeroGradient;
    {
       type            inletOutlet;
       inletValue      $internalField; 
       value           $internalField;
    }

    plate_wall          
    {
        type            omegaWallFunction;
        value           $internalField;      //was uniform 1e-20;
    }
    
    top
    {
        type            symmetry;
    }

    frontAndBackPlanes
    {
        type            empty;
    }
}


// ************************************************************************* //
