/*--------------------------------*- C++ -*----------------------------------*\
| =========                 |                                                 |
| \\      /  F ield         | OpenFOAM: The Open Source CFD Toolbox           |
|  \\    /   O peration     | Version:  3.0.1                                 |
|   \\  /    A nd           | Web:      www.OpenFOAM.org                      |
|    \\/     M anipulation  |                                                 |
\*---------------------------------------------------------------------------*/
FoamFile
{
    version     2.0;
    format      ascii;
    class       volScalarField;
    location    "0";
    object      p_rgh;
}
// * * * * * * * * * * * * * * * * * * * * * * * * * * * * * * * * * * * * * //

dimensions      [1 -1 -2 0 0 0 0];

internalField   uniform 0;

boundaryField
{
    plate_wall
    {
            //was buoyantPressure;
        type            fixedFluxPressure;
        value           $internalField;
    }

    bottom
    {
        type            fixedFluxPressure;
        value           $internalField;

    }

    inlet
    {
        type            fixedFluxPressure;
        value           $internalField;
    }

    outlet
    {
        type            zeroGradient;
    }

    
    top
    {
        type            symmetry;

    }

    frontAndBackPlanes
    {
        type            empty;
    }
}

// ************************************************************************* //
