/*--------------------------------*- C++ -*----------------------------------*\
| =========                 |                                                 |
| \\      /  F ield         | OpenFOAM: The Open Source CFD Toolbox           |
|  \\    /   O peration     | Version:  3.0.1                                 |
|   \\  /    A nd           | Web:      www.OpenFOAM.org                      |
|    \\/     M anipulation  |                                                 |
\*---------------------------------------------------------------------------*/
FoamFile
{
    version     2.0;
    format      ascii;
    class       volVectorField;
    location    "0";
    object      U;
}
// * * * * * * * * * * * * * * * * * * * * * * * * * * * * * * * * * * * * * //
Umean 0.5;
mUmean -0.5;
dimensions      [0 1 -1 0 0 0 0];

internalField   uniform ($mUmean 0 0);

boundaryField
{
    plate_wall
    {
        type            fixedValue;
        value           uniform (0 0 0);
    }
    bottom
    {
        type            fixedValue;
        value           uniform (0 0 0);
    }

    inlet
    {
        type            fixedValue;
        value           $internalField;
        //value           uniform (0.5 0 0);
	//alpha		alpha1; 
    }
    outlet
    {
        type            outletPhaseMeanVelocity;
        alpha           alpha.water;
        Umean           $Umean;
        value           $internalField;
    }
    top
    {
        type            symmetry;
    }
    frontAndBackPlanes
    {
        type            empty;
    }
}


// ************************************************************************* //
